BTM00001
  CDK     10142116582D

 13 14  0  0  0  0  0  0  0  0999 V2000
    2.1853    2.6360    0.0000 C   0  0  0  0  0  0  0  0  0  0  0  0
    1.7200    1.2100    0.0000 N   0  0  0  0  0  0  0  0  0  0  0  0
    2.6000    0.0000    0.0000 C   0  0  0  0  0  0  0  0  0  0  0  0
    1.7200   -1.2100    0.0000 N   0  0  0  0  0  0  0  0  0  0  0  0
    0.2900   -0.7500    0.0000 C   0  0  0  0  0  0  0  0  0  0  0  0
    0.2900    0.7500    0.0000 C   0  0  0  0  0  0  0  0  0  0  0  0
   -1.0100    1.5000    0.0000 C   0  0  0  0  0  0  0  0  0  0  0  0
   -1.0100    3.0000    0.0000 O   0  0  0  0  0  0  0  0  0  0  0  0
   -2.3100    0.7500    0.0000 N   0  0  0  0  0  0  0  0  0  0  0  0
   -2.3100   -0.7500    0.0000 C   0  0  0  0  0  0  0  0  0  0  0  0
   -3.6089   -1.5002    0.0000 O   0  0  0  0  0  0  0  0  0  0  0  0
   -1.0100   -1.5000    0.0000 N   0  0  0  0  0  0  0  0  0  0  0  0
   -1.0100   -3.0000    0.0000 C   0  0  0  0  0  0  0  0  0  0  0  0
  1  2  1  0  0  0  0 
  2  3  1  0  0  0  0 
  3  4  2  0  0  0  0 
  4  5  1  0  0  0  0 
  5  6  2  0  0  0  0 
  2  6  1  0  0  0  0 
  6  7  1  0  0  0  0 
  7  8  2  0  0  0  0 
  7  9  1  0  0  0  0 
  9 10  1  0  0  0  0 
 10 11  2  0  0  0  0 
 10 12  1  0  0  0  0 
  5 12  1  0  0  0  0 
 12 13  1  0  0  0  0 
M  END
> <InChI>
InChI=1S/C7H8N4O2/c1-10-3-8-5-4(10)6(12)9-7(13)11(5)2/h3H,1-2H3,(H,9,12,13)

> <InChIKey>
YAPQBXQYLJRXSA-UHFFFAOYSA-N

> <SMILES>
CN1C=NC2=C1C(=O)NC(=O)N2C

> <Synonyms>


> <PUBCHEM_CID>


> <Molecular_formula>
C7H8N4O2

> <Major_Isotope_Mass>
180.064725496

> <ALogP>
0.6505999999999994

> <Lipinski_Violations>
0

> <Insecticide_Likeness_Violations>
0

> <Post_Em_Herbicide_Likeness_Violations>
0

> <Metabolite_ID>
BTM00001

> <Reaction>
N-Dealkylation of urea

> <Reaction_ID>
BTMR1134

> <Enzyme(s)>
CYP1A2
CYP2D6

> <Biosystem>
HUMAN

> <Precursor_ID>


> <Precursor_SMILES>
CN1C=NC2=C1C(=O)N(C(=O)N2C)C

> <Precursor_InChI>
InChI=1S/C8H10N4O2/c1-10-4-9-6-5(10)7(13)12(3)8(14)11(6)2/h4H,1-3H3

> <Precursor_InChIKey>
RYYVLZVUVIJVGH-UHFFFAOYSA-N

> <Precursor_ALogP>


> <Precursor_Major_Isotope_Mass>
194.0803

$$$$
BTM00002
  CDK     10142116582D

 13 14  0  0  0  0  0  0  0  0999 V2000
    2.1853    2.6360    0.0000 C   0  0  0  0  0  0  0  0  0  0  0  0
    1.7200    1.2100    0.0000 N   0  0  0  0  0  0  0  0  0  0  0  0
    2.6000    0.0000    0.0000 C   0  0  0  0  0  0  0  0  0  0  0  0
    1.7200   -1.2100    0.0000 N   0  0  0  0  0  0  0  0  0  0  0  0
    0.2900   -0.7500    0.0000 C   0  0  0  0  0  0  0  0  0  0  0  0
    0.2900    0.7500    0.0000 C   0  0  0  0  0  0  0  0  0  0  0  0
   -1.0100    1.5000    0.0000 C   0  0  0  0  0  0  0  0  0  0  0  0
   -1.0100    3.0000    0.0000 O   0  0  0  0  0  0  0  0  0  0  0  0
   -2.3100    0.7500    0.0000 N   0  0  0  0  0  0  0  0  0  0  0  0
   -2.3100   -0.7500    0.0000 C   0  0  0  0  0  0  0  0  0  0  0  0
   -3.6089   -1.5002    0.0000 O   0  0  0  0  0  0  0  0  0  0  0  0
   -1.0100   -1.5000    0.0000 N   0  0  0  0  0  0  0  0  0  0  0  0
   -3.6089    1.5002    0.0000 C   0  0  0  0  0  0  0  0  0  0  0  0
  1  2  1  0  0  0  0 
  2  3  1  0  0  0  0 
  3  4  2  0  0  0  0 
  4  5  1  0  0  0  0 
  5  6  2  0  0  0  0 
  2  6  1  0  0  0  0 
  6  7  1  0  0  0  0 
  7  8  2  0  0  0  0 
  7  9  1  0  0  0  0 
  9 10  1  0  0  0  0 
 10 11  2  0  0  0  0 
 10 12  1  0  0  0  0 
  5 12  1  0  0  0  0 
  9 13  1  0  0  0  0 
M  END
> <InChI>
InChI=1S/C7H8N4O2/c1-10-3-8-5-4(10)6(12)11(2)7(13)9-5/h3H,1-2H3,(H,9,13)

> <InChIKey>
QUNWUDVFRNGTCO-UHFFFAOYSA-N

> <SMILES>
CN1C=NC2=C1C(=O)N(C(=O)N2)C

> <Synonyms>


> <PUBCHEM_CID>


> <Molecular_formula>
C7H8N4O2

> <Major_Isotope_Mass>
180.064725496

> <ALogP>
0.6505999999999994

> <Lipinski_Violations>
0

> <Insecticide_Likeness_Violations>
0

> <Post_Em_Herbicide_Likeness_Violations>
0

> <Metabolite_ID>
BTM00002

> <Reaction>
N-Dealkylation of urea

> <Reaction_ID>
BTMR1134

> <Enzyme(s)>
CYP1A2
CYP2D6

> <Biosystem>
HUMAN

> <Precursor_ID>


> <Precursor_SMILES>
CN1C=NC2=C1C(=O)N(C(=O)N2C)C

> <Precursor_InChI>
InChI=1S/C8H10N4O2/c1-10-4-9-6-5(10)7(13)12(3)8(14)11(6)2/h4H,1-3H3

> <Precursor_InChIKey>
RYYVLZVUVIJVGH-UHFFFAOYSA-N

> <Precursor_ALogP>


> <Precursor_Major_Isotope_Mass>
194.0803

$$$$
BTM00003
  CDK     1014211658

 13 14  0  0  0  0  0  0  0  0999 V2000
    0.0000    0.0000    0.0000 C   0  0  0  0  0  0  0  0  0  0  0  0
    0.0000    0.0000    0.0000 N   0  0  0  0  0  0  0  0  0  0  0  0
    0.0000    0.0000    0.0000 C   0  0  0  0  0  0  0  0  0  0  0  0
    0.0000    0.0000    0.0000 C   0  0  0  0  0  0  0  0  0  0  0  0
    0.0000    0.0000    0.0000 C   0  0  0  0  0  0  0  0  0  0  0  0
    0.0000    0.0000    0.0000 O   0  0  0  0  0  0  0  0  0  0  0  0
    0.0000    0.0000    0.0000 N   0  0  0  0  0  0  0  0  0  0  0  0
    0.0000    0.0000    0.0000 C   0  0  0  0  0  0  0  0  0  0  0  0
    0.0000    0.0000    0.0000 O   0  0  0  0  0  0  0  0  0  0  0  0
    0.0000    0.0000    0.0000 N   0  0  0  0  0  0  0  0  0  0  0  0
    0.0000    0.0000    0.0000 C   0  0  0  0  0  0  0  0  0  0  0  0
    0.0000    0.0000    0.0000 C   0  0  0  0  0  0  0  0  0  0  0  0
    0.0000    0.0000    0.0000 N   0  0  0  0  0  0  0  0  0  0  0  0
  1  2  2  0  0  0  0 
  2  3  1  0  0  0  0 
  3  4  2  0  0  0  0 
  4  5  1  0  0  0  0 
  5  6  2  0  0  0  0 
  5  7  1  0  0  0  0 
  7  8  1  0  0  0  0 
  8  9  2  0  0  0  0 
  8 10  1  0  0  0  0 
  3 10  1  0  0  0  0 
 10 11  1  0  0  0  0 
  7 12  1  0  0  0  0 
  4 13  1  0  0  0  0 
  1 13  1  0  0  0  0 
M  END
> <InChI>
InChI=1S/C7H8N4O2/c1-10-5-4(8-3-9-5)6(12)11(2)7(10)13/h3H,1-2H3,(H,8,9)

> <InChIKey>
ZFXYFBGIUFBOJW-UHFFFAOYSA-N

> <SMILES>
C1=NC2=C(C(=O)N(C(=O)N2C)C)N1

> <Synonyms>


> <PUBCHEM_CID>


> <Molecular_formula>
C7H8N4O2

> <Major_Isotope_Mass>
180.064725496

> <ALogP>
0.5231999999999997

> <Lipinski_Violations>
0

> <Insecticide_Likeness_Violations>
0

> <Post_Em_Herbicide_Likeness_Violations>
0

> <Metabolite_ID>
BTM00003

> <Reaction>
N-Dealkylation

> <Reaction_ID>
N/A

> <Enzyme(s)>
CYP1A2
CYP2D6
CYP2E1
CYP3A4

> <Biosystem>
HUMAN

> <Precursor_ID>


> <Precursor_SMILES>
CN1C=NC2=C1C(=O)N(C(=O)N2C)C

> <Precursor_InChI>
InChI=1S/C8H10N4O2/c1-10-4-9-6-5(10)7(13)12(3)8(14)11(6)2/h4H,1-3H3

> <Precursor_InChIKey>
RYYVLZVUVIJVGH-UHFFFAOYSA-N

> <Precursor_ALogP>


> <Precursor_Major_Isotope_Mass>
194.0803

$$$$
BTM00004
  CDK     1014211658

 15 16  0  0  0  0  0  0  0  0999 V2000
    0.0000    0.0000    0.0000 C   0  0  0  0  0  0  0  0  0  0  0  0
    0.0000    0.0000    0.0000 N   0  0  0  0  0  0  0  0  0  0  0  0
    0.0000    0.0000    0.0000 C   0  0  0  0  0  0  0  0  0  0  0  0
    0.0000    0.0000    0.0000 C   0  0  0  0  0  0  0  0  0  0  0  0
    0.0000    0.0000    0.0000 N   0  0  0  0  0  0  0  0  0  0  0  0
    0.0000    0.0000    0.0000 C   0  0  0  0  0  0  0  0  0  0  0  0
    0.0000    0.0000    0.0000 O   0  0  0  0  0  0  0  0  0  0  0  0
    0.0000    0.0000    0.0000 N   0  0  0  0  0  0  0  0  0  0  0  0
    0.0000    0.0000    0.0000 C   0  0  0  0  0  0  0  0  0  0  0  0
    0.0000    0.0000    0.0000 N   0  0  0  0  0  0  0  0  0  0  0  0
    0.0000    0.0000    0.0000 C   0  0  0  0  0  0  0  0  0  0  0  0
    0.0000    0.0000    0.0000 O   0  0  0  0  0  0  0  0  0  0  0  0
    0.0000    0.0000    0.0000 C   0  0  0  0  0  0  0  0  0  0  0  0
    0.0000    0.0000    0.0000 O   0  0  0  0  0  0  0  0  0  0  0  0
    0.0000    0.0000    0.0000 C   0  0  0  0  0  0  0  0  0  0  0  0
  1  2  1  0  0  0  0 
  2  3  1  0  0  0  0 
  3  4  2  0  0  0  0 
  4  5  1  0  0  0  0 
  5  6  2  0  0  0  0 
  2  6  1  0  0  0  0 
  6  7  1  0  0  0  0 
  4  8  1  0  0  0  0 
  8  9  1  0  0  0  0 
  9 10  1  0  0  0  0 
 10 11  1  0  0  0  0 
  3 11  1  0  0  0  0 
 11 12  2  0  0  0  0 
 10 13  1  0  0  0  0 
  9 14  2  0  0  0  0 
  8 15  1  0  0  0  0 
M  END
> <InChI>
InChI=1S/C8H10N4O3/c1-10-4-5(9-7(10)14)11(2)8(15)12(3)6(4)13/h1-3H3,(H,9,14)

> <InChIKey>
BYXCFUMGEBZDDI-UHFFFAOYSA-N

> <SMILES>
CN1C2=C(N=C1O)N(C(N(C2=O)C)=O)C

> <Synonyms>


> <PUBCHEM_CID>


> <Molecular_formula>
C8H10N4O3

> <Major_Isotope_Mass>
210.07529017999997

> <ALogP>
1.1307999999999994

> <Lipinski_Violations>
0

> <Insecticide_Likeness_Violations>
0

> <Post_Em_Herbicide_Likeness_Violations>
0

> <Metabolite_ID>
BTM00004

> <Reaction>
Hydroxylation

> <Reaction_ID>
N/A

> <Enzyme(s)>
CYP1A2
CYP2D6
CYP3A4

> <Biosystem>
HUMAN

> <Precursor_ID>


> <Precursor_SMILES>
CN1C=NC2=C1C(=O)N(C(=O)N2C)C

> <Precursor_InChI>
InChI=1S/C8H10N4O2/c1-10-4-9-6-5(10)7(13)12(3)8(14)11(6)2/h4H,1-3H3

> <Precursor_InChIKey>
RYYVLZVUVIJVGH-UHFFFAOYSA-N

> <Precursor_ALogP>


> <Precursor_Major_Isotope_Mass>
194.0803

$$$$
BTM00005
  CDK     10142116582D

 27 29  0  0  0  0  0  0  0  0999 V2000
    2.1853    2.6360    0.0000 C   0  0  0  0  0  0  0  0  0  0  0  0
    1.7200    1.2100    0.0000 N   0  0  0  0  0  0  0  0  0  0  0  0
    0.2900    0.7500    0.0000 C   0  0  0  0  0  0  0  0  0  0  0  0
    0.2900   -0.7500    0.0000 C   0  0  0  0  0  0  0  0  0  0  0  0
    1.7200   -1.2100    0.0000 N   0  0  0  0  0  0  0  0  0  0  0  0
    2.6000    0.0000    0.0000 C   0  0  0  0  0  0  0  0  0  0  0  0
    4.1000   -0.0000    0.0000 O   0  0  0  0  0  0  0  0  0  0  0  0
   -1.0100   -1.5000    0.0000 N   0  0  0  0  0  0  0  0  0  0  0  0
   -2.3100   -0.7500    0.0000 C   0  0  0  0  0  0  0  0  0  0  0  0
   -2.3100    0.7500    0.0000 N   0  0  0  0  0  0  0  0  0  0  0  0
   -1.0100    1.5000    0.0000 C   0  0  0  0  0  0  0  0  0  0  0  0
   -1.0100    3.0000    0.0000 O   0  0  0  0  0  0  0  0  0  0  0  0
   -3.6089    1.5002    0.0000 C   0  0  0  0  0  0  0  0  0  0  0  0
   -3.6089   -1.5002    0.0000 O   0  0  0  0  0  0  0  0  0  0  0  0
   -1.0100   -3.0000    0.0000 C   0  0  0  0  0  0  0  0  0  0  0  0
    4.8500   -1.2990    0.0000 C   0  0  0  0  0  0  0  0  0  0  0  0
    4.0954   -2.6164    0.0000 O   0  0  0  0  0  0  0  0  0  0  0  0
    4.8410   -3.9190    0.0000 C   0  0  0  0  0  0  0  0  0  0  0  0
    6.3309   -3.9242    0.0000 C   0  0  0  0  0  0  0  0  0  0  0  0
    7.0729   -5.2278    0.0000 O   0  0  0  0  0  0  0  0  0  0  0  0
    7.0954   -2.6268    0.0000 C   0  0  0  0  0  0  0  0  0  0  0  0
    8.5954   -2.6369    0.0000 O   0  0  0  0  0  0  0  0  0  0  0  0
    6.3400   -1.3042    0.0000 C   0  0  0  0  0  0  0  0  0  0  0  0
    7.0952   -0.0082    0.0000 O   0  0  0  0  0  0  0  0  0  0  0  0
    4.0863   -5.2153    0.0000 C   0  0  0  0  0  0  0  0  0  0  0  0
    4.8316   -6.5171    0.0000 O   0  0  0  0  0  0  0  0  0  0  0  0
    2.5863   -5.2099    0.0000 O   0  0  0  0  0  0  0  0  0  0  0  0
  1  2  1  0  0  0  0 
  2  3  1  0  0  0  0 
  3  4  2  0  0  0  0 
  4  5  1  0  0  0  0 
  5  6  2  0  0  0  0 
  2  6  1  0  0  0  0 
  6  7  1  0  0  0  0 
  4  8  1  0  0  0  0 
  8  9  1  0  0  0  0 
  9 10  1  0  0  0  0 
 10 11  1  0  0  0  0 
  3 11  1  0  0  0  0 
 11 12  2  0  0  0  0 
 10 13  1  0  0  0  0 
  9 14  2  0  0  0  0 
  8 15  1  0  0  0  0 
 16  7  1  0  0  0  0 
 16 17  1  0  0  0  0 
 17 18  1  0  0  0  0 
 18 19  1  0  0  0  0 
 19 20  1  0  0  0  0 
 19 21  1  0  0  0  0 
 21 22  1  0  0  0  0 
 21 23  1  0  0  0  0 
 16 23  1  0  0  0  0 
 23 24  1  0  0  0  0 
 18 25  1  0  0  0  0 
 25 26  1  0  0  0  0 
 25 27  2  0  0  0  0 
M  END
> <InChI>
InChI=1S/C14H18N4O9/c1-16-4-9(17(2)14(25)18(3)10(4)22)15-13(16)27-12-7(21)5(19)6(20)8(26-12)11(23)24/h5-8,12,19-21H,1-3H3,(H,23,24)

> <InChIKey>
GJZOOTZSIJPESL-UHFFFAOYSA-N

> <SMILES>
CN1C2=C(N=C1OC3OC(C(O)C(O)C3O)C(O)=O)N(C(N(C2=O)C)=O)C

> <Synonyms>


> <PUBCHEM_CID>


> <Molecular_formula>
C14H18N4O9

> <Major_Isotope_Mass>
386.107378156

> <ALogP>
-0.671400000000001

> <Lipinski_Violations>
0

> <Insecticide_Likeness_Violations>
1

> <Post_Em_Herbicide_Likeness_Violations>
1

> <Metabolite_ID>
BTM00005

> <Reaction>
Aromatic OH-glucuronidation

> <Reaction_ID>
BTMR0166

> <Enzyme(s)>
EC 2.4.1.17

> <Biosystem>
HUMAN

> <Precursor_ID>
BTM00004

> <Precursor_SMILES>
CN1C2=C(N=C1O)N(C(N(C2=O)C)=O)C

> <Precursor_InChI>
InChI=1S/C8H10N4O3/c1-10-4-5(9-7(10)14)11(2)8(15)12(3)6(4)13/h1-3H3,(H,9,14)

> <Precursor_InChIKey>
BYXCFUMGEBZDDI-UHFFFAOYSA-N

> <Precursor_ALogP>
1.1307999999999994

> <Precursor_Major_Isotope_Mass>
210.07529017999997

$$$$
BTM00006
  CDK     1014211658

 12 13  0  0  0  0  0  0  0  0999 V2000
    0.0000    0.0000    0.0000 C   0  0  0  0  0  0  0  0  0  0  0  0
    0.0000    0.0000    0.0000 N   0  0  0  0  0  0  0  0  0  0  0  0
    0.0000    0.0000    0.0000 C   0  0  0  0  0  0  0  0  0  0  0  0
    0.0000    0.0000    0.0000 N   0  0  0  0  0  0  0  0  0  0  0  0
    0.0000    0.0000    0.0000 C   0  0  0  0  0  0  0  0  0  0  0  0
    0.0000    0.0000    0.0000 C   0  0  0  0  0  0  0  0  0  0  0  0
    0.0000    0.0000    0.0000 C   0  0  0  0  0  0  0  0  0  0  0  0
    0.0000    0.0000    0.0000 O   0  0  0  0  0  0  0  0  0  0  0  0
    0.0000    0.0000    0.0000 N   0  0  0  0  0  0  0  0  0  0  0  0
    0.0000    0.0000    0.0000 C   0  0  0  0  0  0  0  0  0  0  0  0
    0.0000    0.0000    0.0000 O   0  0  0  0  0  0  0  0  0  0  0  0
    0.0000    0.0000    0.0000 N   0  0  0  0  0  0  0  0  0  0  0  0
  1  2  1  0  0  0  0 
  2  3  1  0  0  0  0 
  3  4  2  0  0  0  0 
  4  5  1  0  0  0  0 
  5  6  2  0  0  0  0 
  2  6  1  0  0  0  0 
  6  7  1  0  0  0  0 
  7  8  2  0  0  0  0 
  7  9  1  0  0  0  0 
  9 10  1  0  0  0  0 
 10 11  2  0  0  0  0 
 10 12  1  0  0  0  0 
  5 12  1  0  0  0  0 
M  END
> <InChI>
InChI=1S/C6H6N4O2/c1-10-2-7-4-3(10)5(11)9-6(12)8-4/h2H,1H3,(H2,8,9,11,12)

> <InChIKey>
PFWLFWPASULGAN-UHFFFAOYSA-N

> <SMILES>
CN1C=NC2=C1C(=O)NC(=O)N2

> <Synonyms>


> <PUBCHEM_CID>


> <Molecular_formula>
C6H6N4O2

> <Major_Isotope_Mass>
166.049075432

> <ALogP>
0.44469999999999976

> <Lipinski_Violations>
0

> <Insecticide_Likeness_Violations>
0

> <Post_Em_Herbicide_Likeness_Violations>
0

> <Metabolite_ID>
BTM00006

> <Reaction>
N-Dealkylation

> <Reaction_ID>
N/A

> <Enzyme(s)>
CYP1A2
CYP2D6
CYP2E1

> <Biosystem>
HUMAN

> <Precursor_ID>
BTM00001

> <Precursor_SMILES>
CN1C=NC2=C1C(=O)NC(=O)N2C

> <Precursor_InChI>
InChI=1S/C7H8N4O2/c1-10-3-8-5-4(10)6(12)9-7(13)11(5)2/h3H,1-2H3,(H,9,12,13)

> <Precursor_InChIKey>
YAPQBXQYLJRXSA-UHFFFAOYSA-N

> <Precursor_ALogP>
0.6505999999999994

> <Precursor_Major_Isotope_Mass>
180.064725496

$$$$
BTM00007
  CDK     1014211658

 14 15  0  0  0  0  0  0  0  0999 V2000
    0.0000    0.0000    0.0000 N   0  0  0  0  0  0  0  0  0  0  0  0
    0.0000    0.0000    0.0000 C   0  0  0  0  0  0  0  0  0  0  0  0
    0.0000    0.0000    0.0000 C   0  0  0  0  0  0  0  0  0  0  0  0
    0.0000    0.0000    0.0000 C   0  0  0  0  0  0  0  0  0  0  0  0
    0.0000    0.0000    0.0000 O   0  0  0  0  0  0  0  0  0  0  0  0
    0.0000    0.0000    0.0000 N   0  0  0  0  0  0  0  0  0  0  0  0
    0.0000    0.0000    0.0000 C   0  0  0  0  0  0  0  0  0  0  0  0
    0.0000    0.0000    0.0000 O   0  0  0  0  0  0  0  0  0  0  0  0
    0.0000    0.0000    0.0000 N   0  0  0  0  0  0  0  0  0  0  0  0
    0.0000    0.0000    0.0000 C   0  0  0  0  0  0  0  0  0  0  0  0
    0.0000    0.0000    0.0000 C   0  0  0  0  0  0  0  0  0  0  0  0
    0.0000    0.0000    0.0000 N   0  0  0  0  0  0  0  0  0  0  0  0
    0.0000    0.0000    0.0000 C   0  0  0  0  0  0  0  0  0  0  0  0
    0.0000    0.0000    0.0000 O   0  0  0  0  0  0  0  0  0  0  0  0
  1  2  1  0  0  0  0 
  2  3  2  0  0  0  0 
  3  4  1  0  0  0  0 
  4  5  2  0  0  0  0 
  4  6  1  0  0  0  0 
  6  7  1  0  0  0  0 
  7  8  2  0  0  0  0 
  7  9  1  0  0  0  0 
  2  9  1  0  0  0  0 
  9 10  1  0  0  0  0 
  6 11  1  0  0  0  0 
  3 12  1  0  0  0  0 
 12 13  1  0  0  0  0 
  1 13  2  0  0  0  0 
 13 14  1  0  0  0  0 
M  END
> <InChI>
InChI=1S/C7H8N4O3/c1-10-4-3(8-6(13)9-4)5(12)11(2)7(10)14/h1-2H3,(H2,8,9,13)

> <InChIKey>
OTSBKHHWSQYEHK-UHFFFAOYSA-N

> <SMILES>
N=1C2=C(C(=O)N(C(=O)N2C)C)NC1O

> <Synonyms>


> <PUBCHEM_CID>


> <Molecular_formula>
C7H8N4O3

> <Major_Isotope_Mass>
196.059640116

> <ALogP>
0.7974999999999995

> <Lipinski_Violations>
0

> <Insecticide_Likeness_Violations>
0

> <Post_Em_Herbicide_Likeness_Violations>
0

> <Metabolite_ID>
BTM00007

> <Reaction>
Hydroxylation

> <Reaction_ID>
N/A

> <Enzyme(s)>
CYP1A2
CYP2D6
CYP2E1
CYP3A4

> <Biosystem>
HUMAN

> <Precursor_ID>
BTM00003

> <Precursor_SMILES>
C1=NC2=C(C(=O)N(C(=O)N2C)C)N1

> <Precursor_InChI>
InChI=1S/C7H8N4O2/c1-10-5-4(8-3-9-5)6(12)11(2)7(10)13/h3H,1-2H3,(H,8,9)

> <Precursor_InChIKey>
ZFXYFBGIUFBOJW-UHFFFAOYSA-N

> <Precursor_ALogP>
0.5231999999999997

> <Precursor_Major_Isotope_Mass>
180.064725496

$$$$
BTM00008
  CDK     10142116582D

 26 28  0  0  0  0  0  0  0  0999 V2000
    1.7200   -1.2100    0.0000 N   0  0  0  0  0  0  0  0  0  0  0  0
    0.2900   -0.7500    0.0000 C   0  0  0  0  0  0  0  0  0  0  0  0
    0.2900    0.7500    0.0000 C   0  0  0  0  0  0  0  0  0  0  0  0
   -1.0100    1.5000    0.0000 C   0  0  0  0  0  0  0  0  0  0  0  0
   -1.0100    3.0000    0.0000 O   0  0  0  0  0  0  0  0  0  0  0  0
   -2.3100    0.7500    0.0000 N   0  0  0  0  0  0  0  0  0  0  0  0
   -2.3100   -0.7500    0.0000 C   0  0  0  0  0  0  0  0  0  0  0  0
   -3.6089   -1.5002    0.0000 O   0  0  0  0  0  0  0  0  0  0  0  0
   -1.0100   -1.5000    0.0000 N   0  0  0  0  0  0  0  0  0  0  0  0
   -1.0100   -3.0000    0.0000 C   0  0  0  0  0  0  0  0  0  0  0  0
   -3.6089    1.5002    0.0000 C   0  0  0  0  0  0  0  0  0  0  0  0
    1.7200    1.2100    0.0000 N   0  0  0  0  0  0  0  0  0  0  0  0
    2.6000    0.0000    0.0000 C   0  0  0  0  0  0  0  0  0  0  0  0
    4.1000   -0.0000    0.0000 O   0  0  0  0  0  0  0  0  0  0  0  0
    4.8500    1.2990    0.0000 C   0  0  0  0  0  0  0  0  0  0  0  0
    6.3682    1.3043    0.0000 O   0  0  0  0  0  0  0  0  0  0  0  0
    7.1235    2.6012    0.0000 C   0  0  0  0  0  0  0  0  0  0  0  0
    6.3830    3.8941    0.0000 C   0  0  0  0  0  0  0  0  0  0  0  0
    7.1410    5.1885    0.0000 O   0  0  0  0  0  0  0  0  0  0  0  0
    4.8772    3.9075    0.0000 C   0  0  0  0  0  0  0  0  0  0  0  0
    4.1360    5.2116    0.0000 O   0  0  0  0  0  0  0  0  0  0  0  0
    4.1095    2.5920    0.0000 C   0  0  0  0  0  0  0  0  0  0  0  0
    2.6095    2.5981    0.0000 O   0  0  0  0  0  0  0  0  0  0  0  0
    8.6235    2.5958    0.0000 C   0  0  0  0  0  0  0  0  0  0  0  0
    9.3782    3.8921    0.0000 O   0  0  0  0  0  0  0  0  0  0  0  0
    9.3688    1.2940    0.0000 O   0  0  0  0  0  0  0  0  0  0  0  0
  1  2  1  0  0  0  0 
  2  3  2  0  0  0  0 
  3  4  1  0  0  0  0 
  4  5  2  0  0  0  0 
  4  6  1  0  0  0  0 
  6  7  1  0  0  0  0 
  7  8  2  0  0  0  0 
  7  9  1  0  0  0  0 
  2  9  1  0  0  0  0 
  9 10  1  0  0  0  0 
  6 11  1  0  0  0  0 
  3 12  1  0  0  0  0 
 12 13  1  0  0  0  0 
  1 13  2  0  0  0  0 
 13 14  1  0  0  0  0 
 15 14  1  0  0  0  0 
 15 16  1  0  0  0  0 
 16 17  1  0  0  0  0 
 17 18  1  0  0  0  0 
 18 19  1  0  0  0  0 
 18 20  1  0  0  0  0 
 20 21  1  0  0  0  0 
 20 22  1  0  0  0  0 
 15 22  1  0  0  0  0 
 22 23  1  0  0  0  0 
 17 24  1  0  0  0  0 
 24 25  1  0  0  0  0 
 24 26  2  0  0  0  0 
M  END
> <InChI>
InChI=1S/C13H16N4O9/c1-16-8-3(9(21)17(2)13(16)24)14-12(15-8)26-11-6(20)4(18)5(19)7(25-11)10(22)23/h4-7,11,18-20H,1-2H3,(H,14,15)(H,22,23)

> <InChIKey>
OLHFMEBHAVKXQJ-UHFFFAOYSA-N

> <SMILES>
N=1C2=C(C(=O)N(C(=O)N2C)C)NC1OC3OC(C(O)C(O)C3O)C(O)=O

> <Synonyms>


> <PUBCHEM_CID>


> <Molecular_formula>
C13H16N4O9

> <Major_Isotope_Mass>
372.091728092

> <ALogP>
-1.0047000000000001

> <Lipinski_Violations>
0

> <Insecticide_Likeness_Violations>
1

> <Post_Em_Herbicide_Likeness_Violations>
1

> <Metabolite_ID>
BTM00008

> <Reaction>
Aromatic OH-glucuronidation

> <Reaction_ID>
BTMR0166

> <Enzyme(s)>
EC 2.4.1.17

> <Biosystem>
HUMAN

> <Precursor_ID>
BTM00007

> <Precursor_SMILES>
N=1C2=C(C(=O)N(C(=O)N2C)C)NC1O

> <Precursor_InChI>
InChI=1S/C7H8N4O3/c1-10-4-3(8-6(13)9-4)5(12)11(2)7(10)14/h1-2H3,(H2,8,9,13)

> <Precursor_InChIKey>
OTSBKHHWSQYEHK-UHFFFAOYSA-N

> <Precursor_ALogP>
0.7974999999999995

> <Precursor_Major_Isotope_Mass>
196.059640116

$$$$
