BTM00001
  CDK     10142111552D

 15 16  0  0  0  0  0  0  0  0999 V2000
    7.1000    2.5981    0.0000 C   0  0  0  0  0  0  0  0  0  0  0  0
    6.3500    1.2990    0.0000 O   0  0  0  0  0  0  0  0  0  0  0  0
    4.8500    1.2990    0.0000 C   0  0  0  0  0  0  0  0  0  0  0  0
    4.1000    2.5981    0.0000 O   0  0  0  0  0  0  0  0  0  0  0  0
    4.1000   -0.0000    0.0000 N   0  0  0  0  0  0  0  0  0  0  0  0
    2.6000    0.0000    0.0000 C   0  0  0  0  0  0  0  0  0  0  0  0
    1.7200   -1.2100    0.0000 N   0  0  0  0  0  0  0  0  0  0  0  0
    0.2900   -0.7500    0.0000 C   0  0  0  0  0  0  0  0  0  0  0  0
   -1.0100   -1.5000    0.0000 C   0  0  0  0  0  0  0  0  0  0  0  0
   -2.3100   -0.7500    0.0000 C   0  0  0  0  0  0  0  0  0  0  0  0
   -2.3100    0.7500    0.0000 C   0  0  0  0  0  0  0  0  0  0  0  0
   -1.0100    1.5000    0.0000 C   0  0  0  0  0  0  0  0  0  0  0  0
    0.2900    0.7500    0.0000 C   0  0  0  0  0  0  0  0  0  0  0  0
    1.7200    1.2100    0.0000 N   0  0  0  0  0  0  0  0  0  0  0  0
   -3.6089   -1.5002    0.0000 O   0  0  0  0  0  0  0  0  0  0  0  0
  1  2  1  0  0  0  0 
  2  3  1  0  0  0  0 
  3  4  2  0  0  0  0 
  3  5  1  0  0  0  0 
  5  6  1  0  0  0  0 
  6  7  2  0  0  0  0 
  7  8  1  0  0  0  0 
  8  9  2  0  0  0  0 
  9 10  1  0  0  0  0 
 10 11  2  0  0  0  0 
 11 12  1  0  0  0  0 
 12 13  2  0  0  0  0 
  8 13  1  0  0  0  0 
 13 14  1  0  0  0  0 
  6 14  1  0  0  0  0 
 15 10  1  0  0  0  0 
M  END
> <InChI>
InChI=1S/C9H9N3O3/c1-15-9(14)12-8-10-6-3-2-5(13)4-7(6)11-8/h2-4,13H,1H3,(H2,10,11,12,14)

> <InChIKey>
UINGPWWYGSJYAY-UHFFFAOYSA-N

> <SMILES>
COC(=O)NC1=NC2=CC(=CC=C2N1)O

> <Synonyms>


> <PUBCHEM_CID>


> <Molecular_formula>
C9H9N3O3

> <Major_Isotope_Mass>
207.064391148

> <ALogP>
1.3596

> <Lipinski_Violations>
0

> <Insecticide_Likeness_Violations>
1

> <Post_Em_Herbicide_Likeness_Violations>
1

> <Metabolite_ID>
BTM00001

> <Reaction>
Aromatic hydroxylation of fused benzene ring

> <Reaction_ID>
BTMR1030

> <Enzyme(s)>
CYP1A2
CYP2A6
CYP2B6
CYP2C8
CYP2C9
CYP2C19
CYP2D6
CYP2E1
CYP3A4

> <Biosystem>
HUMAN

> <Precursor_ID>


> <Precursor_SMILES>
COC(=O)NC1=NC2=CC=CC=C2N1

> <Precursor_InChI>
InChI=1S/C9H9N3O2/c1-14-9(13)12-8-10-6-4-2-3-5-7(6)11-8/h2-5H,1H3,(H2,10,11,12,13)

> <Precursor_InChIKey>
TWFZGCMQGLPBSX-UHFFFAOYSA-N

> <Precursor_ALogP>


> <Precursor_Major_Isotope_Mass>
191.0694

$$$$
BTM00002
  CDK     1014211155

 13 14  0  0  0  0  0  0  0  0999 V2000
    0.0000    0.0000    0.0000 C   0  0  0  0  0  0  0  0  0  0  0  0
    0.0000    0.0000    0.0000 O   0  0  0  0  0  0  0  0  0  0  0  0
    0.0000    0.0000    0.0000 N   0  0  0  0  0  0  0  0  0  0  0  0
    0.0000    0.0000    0.0000 C   0  0  0  0  0  0  0  0  0  0  0  0
    0.0000    0.0000    0.0000 N   0  0  0  0  0  0  0  0  0  0  0  0
    0.0000    0.0000    0.0000 C   0  0  0  0  0  0  0  0  0  0  0  0
    0.0000    0.0000    0.0000 C   0  0  0  0  0  0  0  0  0  0  0  0
    0.0000    0.0000    0.0000 C   0  0  0  0  0  0  0  0  0  0  0  0
    0.0000    0.0000    0.0000 C   0  0  0  0  0  0  0  0  0  0  0  0
    0.0000    0.0000    0.0000 C   0  0  0  0  0  0  0  0  0  0  0  0
    0.0000    0.0000    0.0000 C   0  0  0  0  0  0  0  0  0  0  0  0
    0.0000    0.0000    0.0000 N   0  0  0  0  0  0  0  0  0  0  0  0
    0.0000    0.0000    0.0000 O   0  0  0  0  0  0  0  0  0  0  0  0
  1  2  2  0  0  0  0 
  1  3  1  0  0  0  0 
  3  4  1  0  0  0  0 
  4  5  2  0  0  0  0 
  5  6  1  0  0  0  0 
  6  7  2  0  0  0  0 
  7  8  1  0  0  0  0 
  8  9  2  0  0  0  0 
  9 10  1  0  0  0  0 
 10 11  2  0  0  0  0 
  6 11  1  0  0  0  0 
 11 12  1  0  0  0  0 
  4 12  1  0  0  0  0 
  1 13  1  0  0  0  0 
M  END
> <InChI>
InChI=1S/C8H7N3O2/c12-8(13)11-7-9-5-3-1-2-4-6(5)10-7/h1-4H,(H,12,13)(H2,9,10,11)

> <InChIKey>
WEYSQARHSRZNTC-UHFFFAOYSA-N

> <SMILES>
C(=O)(NC1=NC2=CC=CC=C2N1)O

> <Synonyms>


> <PUBCHEM_CID>


> <Molecular_formula>
C8H7N3O2

> <Major_Isotope_Mass>
177.053826464

> <ALogP>
1.376

> <Lipinski_Violations>
0

> <Insecticide_Likeness_Violations>
1

> <Post_Em_Herbicide_Likeness_Violations>
1

> <Metabolite_ID>
BTM00002

> <Reaction>
O-Dealkylation

> <Reaction_ID>
N/A

> <Enzyme(s)>
CYP2E1

> <Biosystem>
HUMAN

> <Precursor_ID>


> <Precursor_SMILES>
COC(=O)NC1=NC2=CC=CC=C2N1

> <Precursor_InChI>
InChI=1S/C9H9N3O2/c1-14-9(13)12-8-10-6-4-2-3-5-7(6)11-8/h2-5H,1H3,(H2,10,11,12,13)

> <Precursor_InChIKey>
TWFZGCMQGLPBSX-UHFFFAOYSA-N

> <Precursor_ALogP>


> <Precursor_Major_Isotope_Mass>
191.0694

$$$$
BTM00003
  CDK     10142111552D

 27 29  0  0  0  0  0  0  0  0999 V2000
    7.1000    2.5981    0.0000 C   0  0  0  0  0  0  0  0  0  0  0  0
    6.3500    1.2990    0.0000 O   0  0  0  0  0  0  0  0  0  0  0  0
    4.8500    1.2990    0.0000 C   0  0  0  0  0  0  0  0  0  0  0  0
    4.1000    2.5981    0.0000 O   0  0  0  0  0  0  0  0  0  0  0  0
    4.1000   -0.0000    0.0000 N   0  0  0  0  0  0  0  0  0  0  0  0
    2.6000    0.0000    0.0000 C   0  0  0  0  0  0  0  0  0  0  0  0
    1.7200   -1.2100    0.0000 N   0  0  0  0  0  0  0  0  0  0  0  0
    0.2900   -0.7500    0.0000 C   0  0  0  0  0  0  0  0  0  0  0  0
   -1.0100   -1.5000    0.0000 C   0  0  0  0  0  0  0  0  0  0  0  0
   -2.3100   -0.7500    0.0000 C   0  0  0  0  0  0  0  0  0  0  0  0
   -2.3100    0.7500    0.0000 C   0  0  0  0  0  0  0  0  0  0  0  0
   -1.0100    1.5000    0.0000 C   0  0  0  0  0  0  0  0  0  0  0  0
    0.2900    0.7500    0.0000 C   0  0  0  0  0  0  0  0  0  0  0  0
    1.7200    1.2100    0.0000 N   0  0  0  0  0  0  0  0  0  0  0  0
   -3.6089   -1.5002    0.0000 O   0  0  0  0  0  0  0  0  0  0  0  0
   -4.9081   -0.7504    0.0000 C   0  0  0  0  0  0  0  0  0  0  0  0
   -4.9136    0.7678    0.0000 O   0  0  0  0  0  0  0  0  0  0  0  0
   -6.2106    1.5229    0.0000 C   0  0  0  0  0  0  0  0  0  0  0  0
   -7.5034    0.7821    0.0000 C   0  0  0  0  0  0  0  0  0  0  0  0
   -8.7979    1.5399    0.0000 O   0  0  0  0  0  0  0  0  0  0  0  0
   -7.5166   -0.7237    0.0000 C   0  0  0  0  0  0  0  0  0  0  0  0
   -8.8205   -1.4651    0.0000 O   0  0  0  0  0  0  0  0  0  0  0  0
   -6.2009   -1.4912    0.0000 C   0  0  0  0  0  0  0  0  0  0  0  0
   -6.2067   -2.9912    0.0000 O   0  0  0  0  0  0  0  0  0  0  0  0
   -6.2054    3.0229    0.0000 C   0  0  0  0  0  0  0  0  0  0  0  0
   -7.5019    3.7773    0.0000 O   0  0  0  0  0  0  0  0  0  0  0  0
   -4.9038    3.7684    0.0000 O   0  0  0  0  0  0  0  0  0  0  0  0
  1  2  1  0  0  0  0 
  2  3  1  0  0  0  0 
  3  4  2  0  0  0  0 
  3  5  1  0  0  0  0 
  5  6  1  0  0  0  0 
  6  7  2  0  0  0  0 
  7  8  1  0  0  0  0 
  8  9  2  0  0  0  0 
  9 10  1  0  0  0  0 
 10 11  2  0  0  0  0 
 11 12  1  0  0  0  0 
 12 13  2  0  0  0  0 
  8 13  1  0  0  0  0 
 13 14  1  0  0  0  0 
  6 14  1  0  0  0  0 
 10 15  1  0  0  0  0 
 16 15  1  0  0  0  0 
 16 17  1  0  0  0  0 
 17 18  1  0  0  0  0 
 18 19  1  0  0  0  0 
 19 20  1  0  0  0  0 
 19 21  1  0  0  0  0 
 21 22  1  0  0  0  0 
 21 23  1  0  0  0  0 
 16 23  1  0  0  0  0 
 23 24  1  0  0  0  0 
 18 25  1  0  0  0  0 
 25 26  1  0  0  0  0 
 25 27  2  0  0  0  0 
M  END
> <InChI>
InChI=1S/C15H17N3O9/c1-25-15(24)18-14-16-6-3-2-5(4-7(6)17-14)26-13-10(21)8(19)9(20)11(27-13)12(22)23/h2-4,8-11,13,19-21H,1H3,(H,22,23)(H2,16,17,18,24)

> <InChIKey>
GEQLFAXMIGPYMF-UHFFFAOYSA-N

> <SMILES>
COC(=O)NC1=NC2=CC(=CC=C2N1)OC3OC(C(O)C(O)C3O)C(O)=O

> <Synonyms>


> <PUBCHEM_CID>


> <Molecular_formula>
C15H17N3O9

> <Major_Isotope_Mass>
383.09647912400004

> <ALogP>
-0.44259999999999944

> <Lipinski_Violations>
1

> <Insecticide_Likeness_Violations>
1

> <Post_Em_Herbicide_Likeness_Violations>
1

> <Metabolite_ID>
BTM00003

> <Reaction>
Aromatic OH-glucuronidation

> <Reaction_ID>
BTMR0166

> <Enzyme(s)>
EC 2.4.1.17

> <Biosystem>
HUMAN

> <Precursor_ID>
BTM00001

> <Precursor_SMILES>
COC(=O)NC1=NC2=CC(=CC=C2N1)O

> <Precursor_InChI>
InChI=1S/C9H9N3O3/c1-15-9(14)12-8-10-6-3-2-5(13)4-7(6)11-8/h2-4,13H,1H3,(H2,10,11,12,14)

> <Precursor_InChIKey>
UINGPWWYGSJYAY-UHFFFAOYSA-N

> <Precursor_ALogP>
1.3596

> <Precursor_Major_Isotope_Mass>
207.064391148

$$$$
BTM00004
  CDK     1014211155

 14 15  0  0  0  0  0  0  0  0999 V2000
    0.0000    0.0000    0.0000 C   0  0  0  0  0  0  0  0  0  0  0  0
    0.0000    0.0000    0.0000 O   0  0  0  0  0  0  0  0  0  0  0  0
    0.0000    0.0000    0.0000 N   0  0  0  0  0  0  0  0  0  0  0  0
    0.0000    0.0000    0.0000 C   0  0  0  0  0  0  0  0  0  0  0  0
    0.0000    0.0000    0.0000 N   0  0  0  0  0  0  0  0  0  0  0  0
    0.0000    0.0000    0.0000 C   0  0  0  0  0  0  0  0  0  0  0  0
    0.0000    0.0000    0.0000 C   0  0  0  0  0  0  0  0  0  0  0  0
    0.0000    0.0000    0.0000 C   0  0  0  0  0  0  0  0  0  0  0  0
    0.0000    0.0000    0.0000 C   0  0  0  0  0  0  0  0  0  0  0  0
    0.0000    0.0000    0.0000 C   0  0  0  0  0  0  0  0  0  0  0  0
    0.0000    0.0000    0.0000 C   0  0  0  0  0  0  0  0  0  0  0  0
    0.0000    0.0000    0.0000 N   0  0  0  0  0  0  0  0  0  0  0  0
    0.0000    0.0000    0.0000 O   0  0  0  0  0  0  0  0  0  0  0  0
    0.0000    0.0000    0.0000 O   0  0  0  0  0  0  0  0  0  0  0  0
  1  2  2  0  0  0  0 
  1  3  1  0  0  0  0 
  3  4  1  0  0  0  0 
  4  5  2  0  0  0  0 
  5  6  1  0  0  0  0 
  6  7  2  0  0  0  0 
  7  8  1  0  0  0  0 
  8  9  2  0  0  0  0 
  9 10  1  0  0  0  0 
 10 11  2  0  0  0  0 
  6 11  1  0  0  0  0 
 11 12  1  0  0  0  0 
  4 12  1  0  0  0  0 
  8 13  1  0  0  0  0 
  1 14  1  0  0  0  0 
M  END
> <InChI>
InChI=1S/C8H7N3O3/c12-4-1-2-5-6(3-4)10-7(9-5)11-8(13)14/h1-3,12H,(H,13,14)(H2,9,10,11)

> <InChIKey>
AUDRWXWLJDCNBW-UHFFFAOYSA-N

> <SMILES>
C(=O)(NC1=NC2=CC(=CC=C2N1)O)O

> <Synonyms>


> <PUBCHEM_CID>


> <Molecular_formula>
C8H7N3O3

> <Major_Isotope_Mass>
193.048741084

> <ALogP>
1.1086

> <Lipinski_Violations>
0

> <Insecticide_Likeness_Violations>
1

> <Post_Em_Herbicide_Likeness_Violations>
1

> <Metabolite_ID>
BTM00004

> <Reaction>
O-Dealkylation

> <Reaction_ID>
N/A

> <Enzyme(s)>
CYP2E1

> <Biosystem>
HUMAN

> <Precursor_ID>
BTM00001

> <Precursor_SMILES>
COC(=O)NC1=NC2=CC(=CC=C2N1)O

> <Precursor_InChI>
InChI=1S/C9H9N3O3/c1-15-9(14)12-8-10-6-3-2-5(13)4-7(6)11-8/h2-4,13H,1H3,(H2,10,11,12,14)

> <Precursor_InChIKey>
UINGPWWYGSJYAY-UHFFFAOYSA-N

> <Precursor_ALogP>
1.3596

> <Precursor_Major_Isotope_Mass>
207.064391148

$$$$
BTM00005
  CDK     10142111552D

 26 28  0  0  0  0  0  0  0  0999 V2000
    4.8500    1.2990    0.0000 C   0  0  0  0  0  0  0  0  0  0  0  0
    4.1000    2.5981    0.0000 O   0  0  0  0  0  0  0  0  0  0  0  0
    4.1000   -0.0000    0.0000 N   0  0  0  0  0  0  0  0  0  0  0  0
    2.6000    0.0000    0.0000 C   0  0  0  0  0  0  0  0  0  0  0  0
    1.7200   -1.2100    0.0000 N   0  0  0  0  0  0  0  0  0  0  0  0
    0.2900   -0.7500    0.0000 C   0  0  0  0  0  0  0  0  0  0  0  0
   -1.0100   -1.5000    0.0000 C   0  0  0  0  0  0  0  0  0  0  0  0
   -2.3100   -0.7500    0.0000 C   0  0  0  0  0  0  0  0  0  0  0  0
   -2.3100    0.7500    0.0000 C   0  0  0  0  0  0  0  0  0  0  0  0
   -1.0100    1.5000    0.0000 C   0  0  0  0  0  0  0  0  0  0  0  0
    0.2900    0.7500    0.0000 C   0  0  0  0  0  0  0  0  0  0  0  0
    1.7200    1.2100    0.0000 N   0  0  0  0  0  0  0  0  0  0  0  0
   -3.6089   -1.5002    0.0000 O   0  0  0  0  0  0  0  0  0  0  0  0
    6.3500    1.2990    0.0000 O   0  0  0  0  0  0  0  0  0  0  0  0
   -4.9081   -0.7504    0.0000 C   0  0  0  0  0  0  0  0  0  0  0  0
   -4.9136    0.7678    0.0000 O   0  0  0  0  0  0  0  0  0  0  0  0
   -6.2106    1.5229    0.0000 C   0  0  0  0  0  0  0  0  0  0  0  0
   -7.5034    0.7821    0.0000 C   0  0  0  0  0  0  0  0  0  0  0  0
   -8.7979    1.5399    0.0000 O   0  0  0  0  0  0  0  0  0  0  0  0
   -7.5166   -0.7237    0.0000 C   0  0  0  0  0  0  0  0  0  0  0  0
   -8.8205   -1.4651    0.0000 O   0  0  0  0  0  0  0  0  0  0  0  0
   -6.2009   -1.4912    0.0000 C   0  0  0  0  0  0  0  0  0  0  0  0
   -6.2067   -2.9912    0.0000 O   0  0  0  0  0  0  0  0  0  0  0  0
   -6.2054    3.0229    0.0000 C   0  0  0  0  0  0  0  0  0  0  0  0
   -7.5019    3.7773    0.0000 O   0  0  0  0  0  0  0  0  0  0  0  0
   -4.9038    3.7684    0.0000 O   0  0  0  0  0  0  0  0  0  0  0  0
  1  2  2  0  0  0  0 
  1  3  1  0  0  0  0 
  3  4  1  0  0  0  0 
  4  5  2  0  0  0  0 
  5  6  1  0  0  0  0 
  6  7  2  0  0  0  0 
  7  8  1  0  0  0  0 
  8  9  2  0  0  0  0 
  9 10  1  0  0  0  0 
 10 11  2  0  0  0  0 
  6 11  1  0  0  0  0 
 11 12  1  0  0  0  0 
  4 12  1  0  0  0  0 
  8 13  1  0  0  0  0 
  1 14  1  0  0  0  0 
 15 13  1  0  0  0  0 
 15 16  1  0  0  0  0 
 16 17  1  0  0  0  0 
 17 18  1  0  0  0  0 
 18 19  1  0  0  0  0 
 18 20  1  0  0  0  0 
 20 21  1  0  0  0  0 
 20 22  1  0  0  0  0 
 15 22  1  0  0  0  0 
 22 23  1  0  0  0  0 
 17 24  1  0  0  0  0 
 24 25  1  0  0  0  0 
 24 26  2  0  0  0  0 
M  END
> <InChI>
InChI=1S/C14H15N3O9/c18-7-8(19)10(11(21)22)26-12(9(7)20)25-4-1-2-5-6(3-4)16-13(15-5)17-14(23)24/h1-3,7-10,12,18-20H,(H,21,22)(H,23,24)(H2,15,16,17)

> <InChIKey>
HNEZRDGNHXSLND-UHFFFAOYSA-N

> <SMILES>
C(=O)(NC1=NC2=CC(=CC=C2N1)OC3OC(C(O)C(O)C3O)C(O)=O)O

> <Synonyms>


> <PUBCHEM_CID>


> <Molecular_formula>
C14H15N3O9

> <Major_Isotope_Mass>
369.08082906

> <ALogP>
-0.6936000000000005

> <Lipinski_Violations>
1

> <Insecticide_Likeness_Violations>
1

> <Post_Em_Herbicide_Likeness_Violations>
1

> <Metabolite_ID>
BTM00005

> <Reaction>
Aromatic OH-glucuronidation

> <Reaction_ID>
BTMR0166

> <Enzyme(s)>
EC 2.4.1.17

> <Biosystem>
HUMAN

> <Precursor_ID>
BTM00004

> <Precursor_SMILES>
C(=O)(NC1=NC2=CC(=CC=C2N1)O)O

> <Precursor_InChI>
InChI=1S/C8H7N3O3/c12-4-1-2-5-6(3-4)10-7(9-5)11-8(13)14/h1-3,12H,(H,13,14)(H2,9,10,11)

> <Precursor_InChIKey>
AUDRWXWLJDCNBW-UHFFFAOYSA-N

> <Precursor_ALogP>
1.1086

> <Precursor_Major_Isotope_Mass>
193.048741084

$$$$
