BTM00001
  CDK     10142111552D

 11 12  0  0  0  0  0  0  0  0999 V2000
   -1.0100    3.0000    0.0000 O   0  0  0  0  0  0  0  0  0  0  0  0
   -1.0100    1.5000    0.0000 C   0  0  0  0  0  0  0  0  0  0  0  0
   -2.3100    0.7500    0.0000 N   0  0  0  0  0  0  0  0  0  0  0  0
   -2.3100   -0.7500    0.0000 C   0  0  0  0  0  0  0  0  0  0  0  0
   -1.0100   -1.5000    0.0000 N   0  0  0  0  0  0  0  0  0  0  0  0
    0.2900   -0.7500    0.0000 C   0  0  0  0  0  0  0  0  0  0  0  0
    0.2900    0.7500    0.0000 C   0  0  0  0  0  0  0  0  0  0  0  0
    1.7200    1.2100    0.0000 N   0  0  0  0  0  0  0  0  0  0  0  0
    2.6000    0.0000    0.0000 C   0  0  0  0  0  0  0  0  0  0  0  0
    1.7200   -1.2100    0.0000 N   0  0  0  0  0  0  0  0  0  0  0  0
   -3.6089   -1.5002    0.0000 O   0  0  0  0  0  0  0  0  0  0  0  0
  1  2  1  0  0  0  0 
  2  3  2  0  0  0  0 
  3  4  1  0  0  0  0 
  4  5  1  0  0  0  0 
  5  6  1  0  0  0  0 
  6  7  2  0  0  0  0 
  2  7  1  0  0  0  0 
  7  8  1  0  0  0  0 
  8  9  1  0  0  0  0 
  9 10  2  0  0  0  0 
  6 10  1  0  0  0  0 
  4 11  2  0  0  0  0 
M  END
> <InChI>
InChI=1S/C5H4N4O2/c10-4-2-3(7-1-6-2)8-5(11)9-4/h1H,(H3,6,7,8,9,10,11)

> <InChIKey>
LRFVTYWOQMYALW-UHFFFAOYSA-N

> <SMILES>
OC1=NC(NC2=C1NC=N2)=O

> <Synonyms>


> <PUBCHEM_CID>


> <Molecular_formula>
C5H4N4O2

> <Major_Isotope_Mass>
152.033425368

> <ALogP>
-0.39949999999999986

> <Lipinski_Violations>
0

> <Insecticide_Likeness_Violations>
1

> <Post_Em_Herbicide_Likeness_Violations>
1

> <Metabolite_ID>
BTM00001

> <Reaction>
Oxidation of pyrimidine

> <Reaction_ID>
BTMR1214

> <Enzyme(s)>
EC 1.2.3.1

> <Biosystem>
HUMAN

> <Precursor_ID>


> <Precursor_SMILES>
OC1=NC=NC2=C1NC=N2

> <Precursor_InChI>
InChI=1S/C5H4N4O/c10-5-3-4(7-1-6-3)8-2-9-5/h1-2H,(H2,6,7,8,9,10)

> <Precursor_InChIKey>
FDGQSTZJBFJUBT-UHFFFAOYSA-N

> <Precursor_ALogP>


> <Precursor_Major_Isotope_Mass>
136.0385

$$$$
BTM00002
  CDK     10142111552D

 22 24  0  0  0  0  0  0  0  0999 V2000
   -1.0100    3.0000    0.0000 O   0  0  0  0  0  0  0  0  0  0  0  0
   -1.0100    1.5000    0.0000 C   0  0  0  0  0  0  0  0  0  0  0  0
   -2.3100    0.7500    0.0000 N   0  0  0  0  0  0  0  0  0  0  0  0
   -2.3100   -0.7500    0.0000 C   0  0  0  0  0  0  0  0  0  0  0  0
   -1.0100   -1.5000    0.0000 N   0  0  0  0  0  0  0  0  0  0  0  0
    0.2900   -0.7500    0.0000 C   0  0  0  0  0  0  0  0  0  0  0  0
    0.2900    0.7500    0.0000 C   0  0  0  0  0  0  0  0  0  0  0  0
    1.7200    1.2100    0.0000 N   0  0  0  0  0  0  0  0  0  0  0  0
    2.6000    0.0000    0.0000 C   0  0  0  0  0  0  0  0  0  0  0  0
    1.7200   -1.2100    0.0000 N   0  0  0  0  0  0  0  0  0  0  0  0
   -2.3090    3.7500    0.0000 C   0  0  0  0  0  0  0  0  0  0  0  0
   -2.3143    5.2682    0.0000 O   0  0  0  0  0  0  0  0  0  0  0  0
   -3.6112    6.0235    0.0000 C   0  0  0  0  0  0  0  0  0  0  0  0
   -4.9041    5.2830    0.0000 C   0  0  0  0  0  0  0  0  0  0  0  0
   -6.1985    6.0410    0.0000 O   0  0  0  0  0  0  0  0  0  0  0  0
   -4.9175    3.7772    0.0000 C   0  0  0  0  0  0  0  0  0  0  0  0
   -6.2216    3.0360    0.0000 O   0  0  0  0  0  0  0  0  0  0  0  0
   -3.6020    3.0095    0.0000 C   0  0  0  0  0  0  0  0  0  0  0  0
   -3.6081    1.5095    0.0000 O   0  0  0  0  0  0  0  0  0  0  0  0
   -3.6058    7.5235    0.0000 C   0  0  0  0  0  0  0  0  0  0  0  0
   -4.9021    8.2782    0.0000 O   0  0  0  0  0  0  0  0  0  0  0  0
   -2.3040    8.2688    0.0000 O   0  0  0  0  0  0  0  0  0  0  0  0
  1  2  1  0  0  0  0 
  2  3  2  0  0  0  0 
  3  4  1  0  0  0  0 
  4  5  2  0  0  0  0 
  5  6  1  0  0  0  0 
  6  7  2  0  0  0  0 
  2  7  1  0  0  0  0 
  7  8  1  0  0  0  0 
  8  9  1  0  0  0  0 
  9 10  2  0  0  0  0 
  6 10  1  0  0  0  0 
 11  1  1  0  0  0  0 
 11 12  1  0  0  0  0 
 12 13  1  0  0  0  0 
 13 14  1  0  0  0  0 
 14 15  1  0  0  0  0 
 14 16  1  0  0  0  0 
 16 17  1  0  0  0  0 
 16 18  1  0  0  0  0 
 11 18  1  0  0  0  0 
 18 19  1  0  0  0  0 
 13 20  1  0  0  0  0 
 20 21  1  0  0  0  0 
 20 22  2  0  0  0  0 
M  END
> <InChI>
InChI=1S/C11H12N4O7/c16-4-5(17)7(10(19)20)21-11(6(4)18)22-9-3-8(13-1-12-3)14-2-15-9/h1-2,4-7,11,16-18H,(H,19,20)(H,12,13,14,15)

> <InChIKey>
KCYVOVNFRSGYSM-UHFFFAOYSA-N

> <SMILES>
O(C1=NC=NC2=C1NC=N2)C3OC(C(O)C(O)C3O)C(O)=O

> <Synonyms>


> <PUBCHEM_CID>


> <Molecular_formula>
C11H12N4O7

> <Major_Isotope_Mass>
312.070598724

> <ALogP>
-1.9865000000000008

> <Lipinski_Violations>
0

> <Insecticide_Likeness_Violations>
1

> <Post_Em_Herbicide_Likeness_Violations>
1

> <Metabolite_ID>
BTM00002

> <Reaction>
Aromatic OH-glucuronidation

> <Reaction_ID>
BTMR0166

> <Enzyme(s)>
EC 2.4.1.17

> <Biosystem>
HUMAN

> <Precursor_ID>


> <Precursor_SMILES>
OC1=NC=NC2=C1NC=N2

> <Precursor_InChI>
InChI=1S/C5H4N4O/c10-5-3-4(7-1-6-3)8-2-9-5/h1-2H,(H2,6,7,8,9,10)

> <Precursor_InChIKey>
FDGQSTZJBFJUBT-UHFFFAOYSA-N

> <Precursor_ALogP>


> <Precursor_Major_Isotope_Mass>
136.0385

$$$$
